*SPEF "ieee 1481-1999"
*DESIGN "tt_um_Mrredstone53_ne555ex"
*DATE "19:27:18 Saturday February 07, 2026"
*VENDOR "The OpenROAD Project"
*PROGRAM "OpenROAD"
*VERSION "edf00dff99f6c40d67a30c0e22a8191c5d2ed9d6"
*DESIGN_FLOW "NAME_SCOPE LOCAL" "PIN_CAP NONE"
*DIVIDER /
*DELIMITER :
*BUS_DELIMITER []
*T_UNIT 1 NS
*C_UNIT 1 PF
*R_UNIT 1 OHM
*L_UNIT 1 HENRY

*NAME_MAP
*3 clk
*4 ena
*5 rst_n
*6 ui_in[0]
*7 ui_in[1]
*8 ui_in[2]
*9 ui_in[3]
*10 ui_in[4]
*11 ui_in[5]
*12 ui_in[6]
*13 ui_in[7]
*14 uio_in[0]
*15 uio_in[1]
*16 uio_in[2]
*17 uio_in[3]
*18 uio_in[4]
*19 uio_in[5]
*20 uio_in[6]
*21 uio_in[7]
*22 net38
*23 net39
*24 net40
*25 net41
*26 net42
*27 net43
*28 net44
*29 net45
*30 net46
*31 net47
*32 net48
*33 net49
*34 net50
*35 net51
*36 net52
*37 net53
*38 uo_out[0]
*39 uo_out[1]
*40 uo_out[2]
*41 uo_out[3]
*42 uo_out[4]
*43 uo_out[5]
*44 uo_out[6]
*45 uo_out[7]
*46 _000_
*47 _001_
*48 _002_
*49 _003_
*50 _004_
*51 _005_
*52 _006_
*53 _007_
*54 _008_
*55 _009_
*56 _010_
*57 _011_
*58 _012_
*59 _013_
*60 _014_
*61 _015_
*62 _016_
*63 _017_
*64 _018_
*65 _019_
*66 _020_
*67 _021_
*68 _022_
*69 _023_
*70 _024_
*71 _025_
*72 _026_
*73 _027_
*74 _028_
*75 _029_
*76 _030_
*77 _031_
*78 _032_
*79 _033_
*80 _034_
*81 _035_
*82 _036_
*83 _037_
*84 _038_
*85 _039_
*86 _040_
*87 _041_
*88 _042_
*89 _043_
*90 _044_
*91 _045_
*92 _046_
*93 _047_
*94 _048_
*95 _049_
*96 _050_
*97 _051_
*98 _052_
*99 _053_
*100 _054_
*101 _055_
*102 _056_
*103 _057_
*104 _058_
*105 _059_
*106 _060_
*107 _061_
*108 _062_
*109 _063_
*110 _064_
*111 _065_
*112 _066_
*113 _067_
*114 _068_
*115 _069_
*116 _070_
*117 _071_
*118 _072_
*119 _073_
*120 _074_
*121 _075_
*122 _076_
*123 _077_
*124 _078_
*125 _079_
*126 _080_
*127 _081_
*128 _082_
*129 _083_
*130 _084_
*131 _085_
*132 _086_
*133 _087_
*134 _088_
*135 _089_
*136 _090_
*137 _091_
*138 _092_
*139 _093_
*140 _094_
*141 _095_
*142 _096_
*143 _097_
*144 _098_
*145 _099_
*146 _100_
*147 _101_
*148 _102_
*149 _103_
*150 _104_
*151 _105_
*152 _106_
*153 _107_
*154 _108_
*155 _109_
*156 _110_
*157 _111_
*158 _112_
*159 _113_
*160 _114_
*161 _115_
*162 _116_
*163 _117_
*164 _118_
*165 _119_
*166 _120_
*167 _121_
*168 _122_
*169 _123_
*170 _124_
*171 _125_
*172 _126_
*173 _127_
*174 _128_
*175 _129_
*176 _130_
*177 _131_
*178 _132_
*179 _133_
*180 _134_
*181 _135_
*182 _136_
*183 _137_
*184 _138_
*185 _139_
*186 _140_
*187 _141_
*188 _142_
*189 _143_
*190 _144_
*191 _145_
*192 _146_
*193 _147_
*194 _148_
*195 _149_
*196 _150_
*197 _151_
*198 _152_
*199 _153_
*200 _154_
*201 _155_
*202 _156_
*203 _157_
*204 _158_
*205 _159_
*206 _160_
*207 _161_
*208 _162_
*209 _163_
*210 _164_
*211 _165_
*212 _166_
*213 _167_
*214 _168_
*215 _169_
*216 _170_
*217 _171_
*218 _172_
*219 _173_
*220 _174_
*221 _175_
*222 _176_
*223 _177_
*224 _178_
*225 _179_
*226 _180_
*227 _181_
*228 _182_
*229 _183_
*230 _184_
*231 _185_
*232 _186_
*233 _187_
*234 _188_
*235 _189_
*236 _190_
*237 _191_
*238 _192_
*239 _193_
*240 _194_
*241 _195_
*242 _196_
*243 _197_
*244 _198_
*245 _199_
*246 _200_
*247 _201_
*248 _202_
*249 _203_
*250 _204_
*251 _205_
*252 _206_
*253 _207_
*254 _208_
*255 _209_
*256 _210_
*257 _211_
*258 _212_
*259 _213_
*260 _214_
*261 _215_
*262 _216_
*263 _217_
*264 _218_
*265 _219_
*266 _220_
*267 _221_
*268 _222_
*269 _223_
*270 _224_
*271 _225_
*272 _226_
*273 _227_
*274 _228_
*275 _229_
*276 _230_
*277 _231_
*278 _232_
*279 _233_
*280 _234_
*281 _235_
*282 _236_
*283 _237_
*284 _238_
*285 _239_
*286 _240_
*287 _241_
*288 _242_
*289 _243_
*290 _244_
*291 _245_
*292 _246_
*293 _247_
*294 _248_
*295 _249_
*296 _250_
*297 _251_
*298 _252_
*299 _253_
*300 _254_
*301 _255_
*302 _256_
*303 _257_
*304 _258_
*305 clknet_0_clk
*306 clknet_2_0__leaf_clk
*307 clknet_2_1__leaf_clk
*308 clknet_2_2__leaf_clk
*309 clknet_2_3__leaf_clk
*310 cnt\[0\]
*311 cnt\[10\]
*312 cnt\[11\]
*313 cnt\[12\]
*314 cnt\[13\]
*315 cnt\[14\]
*316 cnt\[15\]
*317 cnt\[1\]
*318 cnt\[2\]
*319 cnt\[3\]
*320 cnt\[4\]
*321 cnt\[5\]
*322 cnt\[6\]
*323 cnt\[7\]
*324 cnt\[8\]
*325 cnt\[9\]
*326 discharge_i
*327 done_out
*328 done_stretch\[0\]
*329 done_stretch\[1\]
*330 done_stretch\[2\]
*331 done_stretch\[3\]
*332 net1
*333 net10
*334 net11
*335 net12
*336 net13
*337 net14
*338 net15
*339 net16
*340 net17
*341 net18
*342 net19
*343 net2
*344 net20
*345 net21
*346 net22
*347 net23
*348 net24
*349 net25
*350 net26
*351 net27
*352 net28
*353 net29
*354 net3
*355 net30
*356 net31
*357 net32
*358 net33
*359 net34
*360 net35
*361 net36
*362 net37
*363 net4
*364 net5
*365 net54
*366 net55
*367 net56
*368 net57
*369 net58
*370 net59
*371 net6
*372 net60
*373 net61
*374 net62
*375 net63
*376 net64
*377 net65
*378 net66
*379 net67
*380 net68
*381 net69
*382 net7
*383 net70
*384 net71
*385 net72
*386 net73
*387 net74
*388 net75
*389 net76
*390 net77
*391 net8
*392 net9
*393 out_final
*394 pre_cnt\[0\]
*395 pre_cnt\[10\]
*396 pre_cnt\[11\]
*397 pre_cnt\[12\]
*398 pre_cnt\[13\]
*399 pre_cnt\[14\]
*400 pre_cnt\[15\]
*401 pre_cnt\[16\]
*402 pre_cnt\[17\]
*403 pre_cnt\[18\]
*404 pre_cnt\[19\]
*405 pre_cnt\[1\]
*406 pre_cnt\[20\]
*407 pre_cnt\[21\]
*408 pre_cnt\[22\]
*409 pre_cnt\[23\]
*410 pre_cnt\[24\]
*411 pre_cnt\[25\]
*412 pre_cnt\[26\]
*413 pre_cnt\[27\]
*414 pre_cnt\[28\]
*415 pre_cnt\[29\]
*416 pre_cnt\[2\]
*417 pre_cnt\[30\]
*418 pre_cnt\[31\]
*419 pre_cnt\[3\]
*420 pre_cnt\[4\]
*421 pre_cnt\[5\]
*422 pre_cnt\[6\]
*423 pre_cnt\[7\]
*424 pre_cnt\[8\]
*425 pre_cnt\[9\]
*426 tick
*427 FILLER_0_109
*428 FILLER_0_113
*429 FILLER_0_125
*430 FILLER_0_137
*431 FILLER_0_141
*432 FILLER_0_15
*433 FILLER_0_153
*434 FILLER_0_165
*435 FILLER_0_169
*436 FILLER_0_181
*437 FILLER_0_193
*438 FILLER_0_197
*439 FILLER_0_209
*440 FILLER_0_221
*441 FILLER_0_225
*442 FILLER_0_237
*443 FILLER_0_249
*444 FILLER_0_253
*445 FILLER_0_265
*446 FILLER_0_27
*447 FILLER_0_277
*448 FILLER_0_281
*449 FILLER_0_29
*450 FILLER_0_293
*451 FILLER_0_3
*452 FILLER_0_305
*453 FILLER_0_309
*454 FILLER_0_321
*455 FILLER_0_333
*456 FILLER_0_41
*457 FILLER_0_53
*458 FILLER_0_57
*459 FILLER_0_69
*460 FILLER_0_81
*461 FILLER_0_85
*462 FILLER_0_97
*463 FILLER_10_109
*464 FILLER_10_121
*465 FILLER_10_133
*466 FILLER_10_139
*467 FILLER_10_141
*468 FILLER_10_15
*469 FILLER_10_153
*470 FILLER_10_165
*471 FILLER_10_177
*472 FILLER_10_189
*473 FILLER_10_195
*474 FILLER_10_197
*475 FILLER_10_209
*476 FILLER_10_221
*477 FILLER_10_233
*478 FILLER_10_245
*479 FILLER_10_251
*480 FILLER_10_253
*481 FILLER_10_265
*482 FILLER_10_27
*483 FILLER_10_277
*484 FILLER_10_289
*485 FILLER_10_29
*486 FILLER_10_3
*487 FILLER_10_301
*488 FILLER_10_307
*489 FILLER_10_309
*490 FILLER_10_321
*491 FILLER_10_333
*492 FILLER_10_41
*493 FILLER_10_53
*494 FILLER_10_65
*495 FILLER_10_77
*496 FILLER_10_83
*497 FILLER_10_85
*498 FILLER_10_97
*499 FILLER_11_105
*500 FILLER_11_111
*501 FILLER_11_113
*502 FILLER_11_125
*503 FILLER_11_137
*504 FILLER_11_149
*505 FILLER_11_15
*506 FILLER_11_161
*507 FILLER_11_167
*508 FILLER_11_169
*509 FILLER_11_181
*510 FILLER_11_193
*511 FILLER_11_205
*512 FILLER_11_217
*513 FILLER_11_223
*514 FILLER_11_225
*515 FILLER_11_237
*516 FILLER_11_249
*517 FILLER_11_261
*518 FILLER_11_27
*519 FILLER_11_273
*520 FILLER_11_279
*521 FILLER_11_281
*522 FILLER_11_293
*523 FILLER_11_3
*524 FILLER_11_305
*525 FILLER_11_317
*526 FILLER_11_329
*527 FILLER_11_39
*528 FILLER_11_51
*529 FILLER_11_55
*530 FILLER_11_57
*531 FILLER_11_69
*532 FILLER_11_81
*533 FILLER_11_93
*534 FILLER_12_109
*535 FILLER_12_121
*536 FILLER_12_133
*537 FILLER_12_139
*538 FILLER_12_141
*539 FILLER_12_15
*540 FILLER_12_153
*541 FILLER_12_165
*542 FILLER_12_177
*543 FILLER_12_189
*544 FILLER_12_195
*545 FILLER_12_197
*546 FILLER_12_209
*547 FILLER_12_221
*548 FILLER_12_233
*549 FILLER_12_245
*550 FILLER_12_251
*551 FILLER_12_253
*552 FILLER_12_265
*553 FILLER_12_27
*554 FILLER_12_277
*555 FILLER_12_289
*556 FILLER_12_29
*557 FILLER_12_3
*558 FILLER_12_301
*559 FILLER_12_307
*560 FILLER_12_309
*561 FILLER_12_321
*562 FILLER_12_333
*563 FILLER_12_41
*564 FILLER_12_53
*565 FILLER_12_65
*566 FILLER_12_77
*567 FILLER_12_83
*568 FILLER_12_85
*569 FILLER_12_97
*570 FILLER_13_105
*571 FILLER_13_111
*572 FILLER_13_113
*573 FILLER_13_125
*574 FILLER_13_137
*575 FILLER_13_149
*576 FILLER_13_15
*577 FILLER_13_161
*578 FILLER_13_167
*579 FILLER_13_169
*580 FILLER_13_181
*581 FILLER_13_193
*582 FILLER_13_205
*583 FILLER_13_217
*584 FILLER_13_223
*585 FILLER_13_225
*586 FILLER_13_237
*587 FILLER_13_249
*588 FILLER_13_261
*589 FILLER_13_27
*590 FILLER_13_273
*591 FILLER_13_279
*592 FILLER_13_281
*593 FILLER_13_293
*594 FILLER_13_3
*595 FILLER_13_305
*596 FILLER_13_317
*597 FILLER_13_329
*598 FILLER_13_39
*599 FILLER_13_51
*600 FILLER_13_55
*601 FILLER_13_57
*602 FILLER_13_69
*603 FILLER_13_81
*604 FILLER_13_93
*605 FILLER_14_109
*606 FILLER_14_121
*607 FILLER_14_133
*608 FILLER_14_139
*609 FILLER_14_141
*610 FILLER_14_15
*611 FILLER_14_153
*612 FILLER_14_165
*613 FILLER_14_177
*614 FILLER_14_189
*615 FILLER_14_195
*616 FILLER_14_197
*617 FILLER_14_209
*618 FILLER_14_221
*619 FILLER_14_233
*620 FILLER_14_245
*621 FILLER_14_251
*622 FILLER_14_253
*623 FILLER_14_265
*624 FILLER_14_27
*625 FILLER_14_277
*626 FILLER_14_289
*627 FILLER_14_29
*628 FILLER_14_3
*629 FILLER_14_301
*630 FILLER_14_307
*631 FILLER_14_309
*632 FILLER_14_321
*633 FILLER_14_333
*634 FILLER_14_41
*635 FILLER_14_53
*636 FILLER_14_65
*637 FILLER_14_77
*638 FILLER_14_83
*639 FILLER_14_85
*640 FILLER_14_97
*641 FILLER_15_105
*642 FILLER_15_111
*643 FILLER_15_113
*644 FILLER_15_125
*645 FILLER_15_137
*646 FILLER_15_149
*647 FILLER_15_15
*648 FILLER_15_161
*649 FILLER_15_167
*650 FILLER_15_169
*651 FILLER_15_181
*652 FILLER_15_193
*653 FILLER_15_205
*654 FILLER_15_217
*655 FILLER_15_223
*656 FILLER_15_225
*657 FILLER_15_237
*658 FILLER_15_249
*659 FILLER_15_261
*660 FILLER_15_268
*661 FILLER_15_27
*662 FILLER_15_281
*663 FILLER_15_3
*664 FILLER_15_305
*665 FILLER_15_317
*666 FILLER_15_329
*667 FILLER_15_39
*668 FILLER_15_51
*669 FILLER_15_55
*670 FILLER_15_57
*671 FILLER_15_69
*672 FILLER_15_81
*673 FILLER_15_93
*674 FILLER_16_109
*675 FILLER_16_121
*676 FILLER_16_133
*677 FILLER_16_139
*678 FILLER_16_141
*679 FILLER_16_15
*680 FILLER_16_153
*681 FILLER_16_165
*682 FILLER_16_177
*683 FILLER_16_184
*684 FILLER_16_197
*685 FILLER_16_209
*686 FILLER_16_221
*687 FILLER_16_233
*688 FILLER_16_241
*689 FILLER_16_249
*690 FILLER_16_267
*691 FILLER_16_27
*692 FILLER_16_29
*693 FILLER_16_296
*694 FILLER_16_3
*695 FILLER_16_306
*696 FILLER_16_315
*697 FILLER_16_327
*698 FILLER_16_41
*699 FILLER_16_53
*700 FILLER_16_65
*701 FILLER_16_77
*702 FILLER_16_83
*703 FILLER_16_85
*704 FILLER_16_97
*705 FILLER_17_105
*706 FILLER_17_111
*707 FILLER_17_113
*708 FILLER_17_125
*709 FILLER_17_137
*710 FILLER_17_149
*711 FILLER_17_15
*712 FILLER_17_158
*713 FILLER_17_166
*714 FILLER_17_189
*715 FILLER_17_222
*716 FILLER_17_225
*717 FILLER_17_229
*718 FILLER_17_250
*719 FILLER_17_27
*720 FILLER_17_273
*721 FILLER_17_279
*722 FILLER_17_287
*723 FILLER_17_295
*724 FILLER_17_3
*725 FILLER_17_307
*726 FILLER_17_328
*727 FILLER_17_334
*728 FILLER_17_39
*729 FILLER_17_51
*730 FILLER_17_55
*731 FILLER_17_57
*732 FILLER_17_69
*733 FILLER_17_81
*734 FILLER_17_93
*735 FILLER_18_109
*736 FILLER_18_121
*737 FILLER_18_133
*738 FILLER_18_139
*739 FILLER_18_141
*740 FILLER_18_15
*741 FILLER_18_250
*742 FILLER_18_27
*743 FILLER_18_273
*744 FILLER_18_285
*745 FILLER_18_29
*746 FILLER_18_293
*747 FILLER_18_3
*748 FILLER_18_307
*749 FILLER_18_333
*750 FILLER_18_41
*751 FILLER_18_53
*752 FILLER_18_65
*753 FILLER_18_77
*754 FILLER_18_83
*755 FILLER_18_85
*756 FILLER_18_97
*757 FILLER_19_105
*758 FILLER_19_111
*759 FILLER_19_113
*760 FILLER_19_125
*761 FILLER_19_147
*762 FILLER_19_15
*763 FILLER_19_159
*764 FILLER_19_167
*765 FILLER_19_182
*766 FILLER_19_188
*767 FILLER_19_206
*768 FILLER_19_218
*769 FILLER_19_232
*770 FILLER_19_243
*771 FILLER_19_261
*772 FILLER_19_27
*773 FILLER_19_273
*774 FILLER_19_279
*775 FILLER_19_281
*776 FILLER_19_293
*777 FILLER_19_3
*778 FILLER_19_305
*779 FILLER_19_318
*780 FILLER_19_332
*781 FILLER_19_39
*782 FILLER_19_51
*783 FILLER_19_55
*784 FILLER_19_57
*785 FILLER_19_69
*786 FILLER_19_81
*787 FILLER_19_93
*788 FILLER_1_105
*789 FILLER_1_111
*790 FILLER_1_113
*791 FILLER_1_125
*792 FILLER_1_137
*793 FILLER_1_149
*794 FILLER_1_15
*795 FILLER_1_161
*796 FILLER_1_167
*797 FILLER_1_169
*798 FILLER_1_181
*799 FILLER_1_193
*800 FILLER_1_205
*801 FILLER_1_217
*802 FILLER_1_223
*803 FILLER_1_225
*804 FILLER_1_237
*805 FILLER_1_249
*806 FILLER_1_261
*807 FILLER_1_27
*808 FILLER_1_273
*809 FILLER_1_279
*810 FILLER_1_281
*811 FILLER_1_293
*812 FILLER_1_3
*813 FILLER_1_305
*814 FILLER_1_317
*815 FILLER_1_329
*816 FILLER_1_39
*817 FILLER_1_51
*818 FILLER_1_55
*819 FILLER_1_57
*820 FILLER_1_69
*821 FILLER_1_81
*822 FILLER_1_93
*823 FILLER_20_109
*824 FILLER_20_121
*825 FILLER_20_133
*826 FILLER_20_139
*827 FILLER_20_15
*828 FILLER_20_159
*829 FILLER_20_171
*830 FILLER_20_183
*831 FILLER_20_195
*832 FILLER_20_197
*833 FILLER_20_209
*834 FILLER_20_221
*835 FILLER_20_233
*836 FILLER_20_245
*837 FILLER_20_251
*838 FILLER_20_253
*839 FILLER_20_267
*840 FILLER_20_27
*841 FILLER_20_279
*842 FILLER_20_287
*843 FILLER_20_29
*844 FILLER_20_3
*845 FILLER_20_305
*846 FILLER_20_309
*847 FILLER_20_321
*848 FILLER_20_333
*849 FILLER_20_41
*850 FILLER_20_53
*851 FILLER_20_65
*852 FILLER_20_77
*853 FILLER_20_83
*854 FILLER_20_85
*855 FILLER_20_97
*856 FILLER_21_105
*857 FILLER_21_111
*858 FILLER_21_113
*859 FILLER_21_125
*860 FILLER_21_133
*861 FILLER_21_15
*862 FILLER_21_161
*863 FILLER_21_184
*864 FILLER_21_196
*865 FILLER_21_209
*866 FILLER_21_221
*867 FILLER_21_232
*868 FILLER_21_253
*869 FILLER_21_259
*870 FILLER_21_27
*871 FILLER_21_289
*872 FILLER_21_3
*873 FILLER_21_308
*874 FILLER_21_330
*875 FILLER_21_334
*876 FILLER_21_39
*877 FILLER_21_51
*878 FILLER_21_55
*879 FILLER_21_57
*880 FILLER_21_69
*881 FILLER_21_81
*882 FILLER_21_93
*883 FILLER_22_109
*884 FILLER_22_121
*885 FILLER_22_133
*886 FILLER_22_139
*887 FILLER_22_141
*888 FILLER_22_147
*889 FILLER_22_15
*890 FILLER_22_191
*891 FILLER_22_195
*892 FILLER_22_217
*893 FILLER_22_250
*894 FILLER_22_27
*895 FILLER_22_29
*896 FILLER_22_3
*897 FILLER_22_300
*898 FILLER_22_309
*899 FILLER_22_334
*900 FILLER_22_41
*901 FILLER_22_53
*902 FILLER_22_65
*903 FILLER_22_77
*904 FILLER_22_83
*905 FILLER_22_85
*906 FILLER_22_97
*907 FILLER_23_105
*908 FILLER_23_111
*909 FILLER_23_113
*910 FILLER_23_125
*911 FILLER_23_137
*912 FILLER_23_15
*913 FILLER_23_183
*914 FILLER_23_195
*915 FILLER_23_206
*916 FILLER_23_213
*917 FILLER_23_221
*918 FILLER_23_225
*919 FILLER_23_234
*920 FILLER_23_246
*921 FILLER_23_258
*922 FILLER_23_266
*923 FILLER_23_27
*924 FILLER_23_274
*925 FILLER_23_292
*926 FILLER_23_3
*927 FILLER_23_306
*928 FILLER_23_322
*929 FILLER_23_334
*930 FILLER_23_39
*931 FILLER_23_51
*932 FILLER_23_55
*933 FILLER_23_57
*934 FILLER_23_69
*935 FILLER_23_81
*936 FILLER_23_93
*937 FILLER_24_109
*938 FILLER_24_115
*939 FILLER_24_136
*940 FILLER_24_141
*941 FILLER_24_15
*942 FILLER_24_153
*943 FILLER_24_181
*944 FILLER_24_193
*945 FILLER_24_197
*946 FILLER_24_212
*947 FILLER_24_224
*948 FILLER_24_236
*949 FILLER_24_248
*950 FILLER_24_253
*951 FILLER_24_27
*952 FILLER_24_271
*953 FILLER_24_283
*954 FILLER_24_29
*955 FILLER_24_295
*956 FILLER_24_3
*957 FILLER_24_302
*958 FILLER_24_309
*959 FILLER_24_321
*960 FILLER_24_333
*961 FILLER_24_41
*962 FILLER_24_53
*963 FILLER_24_65
*964 FILLER_24_77
*965 FILLER_24_83
*966 FILLER_24_85
*967 FILLER_24_97
*968 FILLER_25_105
*969 FILLER_25_111
*970 FILLER_25_113
*971 FILLER_25_15
*972 FILLER_25_150
*973 FILLER_25_196
*974 FILLER_25_207
*975 FILLER_25_221
*976 FILLER_25_225
*977 FILLER_25_241
*978 FILLER_25_251
*979 FILLER_25_263
*980 FILLER_25_27
*981 FILLER_25_279
*982 FILLER_25_281
*983 FILLER_25_289
*984 FILLER_25_3
*985 FILLER_25_304
*986 FILLER_25_332
*987 FILLER_25_39
*988 FILLER_25_51
*989 FILLER_25_55
*990 FILLER_25_57
*991 FILLER_25_69
*992 FILLER_25_81
*993 FILLER_25_93
*994 FILLER_26_103
*995 FILLER_26_109
*996 FILLER_26_116
*997 FILLER_26_146
*998 FILLER_26_15
*999 FILLER_26_160
*1000 FILLER_26_217
*1001 FILLER_26_253
*1002 FILLER_26_27
*1003 FILLER_26_289
*1004 FILLER_26_29
*1005 FILLER_26_3
*1006 FILLER_26_309
*1007 FILLER_26_333
*1008 FILLER_26_41
*1009 FILLER_26_53
*1010 FILLER_26_65
*1011 FILLER_26_77
*1012 FILLER_26_83
*1013 FILLER_26_85
*1014 FILLER_26_97
*1015 FILLER_27_110
*1016 FILLER_27_121
*1017 FILLER_27_143
*1018 FILLER_27_15
*1019 FILLER_27_153
*1020 FILLER_27_192
*1021 FILLER_27_200
*1022 FILLER_27_221
*1023 FILLER_27_225
*1024 FILLER_27_251
*1025 FILLER_27_27
*1026 FILLER_27_278
*1027 FILLER_27_281
*1028 FILLER_27_287
*1029 FILLER_27_3
*1030 FILLER_27_308
*1031 FILLER_27_312
*1032 FILLER_27_333
*1033 FILLER_27_39
*1034 FILLER_27_51
*1035 FILLER_27_55
*1036 FILLER_27_57
*1037 FILLER_27_69
*1038 FILLER_27_81
*1039 FILLER_27_89
*1040 FILLER_28_123
*1041 FILLER_28_138
*1042 FILLER_28_141
*1043 FILLER_28_15
*1044 FILLER_28_159
*1045 FILLER_28_165
*1046 FILLER_28_174
*1047 FILLER_28_186
*1048 FILLER_28_194
*1049 FILLER_28_197
*1050 FILLER_28_207
*1051 FILLER_28_221
*1052 FILLER_28_233
*1053 FILLER_28_244
*1054 FILLER_28_253
*1055 FILLER_28_261
*1056 FILLER_28_27
*1057 FILLER_28_29
*1058 FILLER_28_290
*1059 FILLER_28_3
*1060 FILLER_28_303
*1061 FILLER_28_307
*1062 FILLER_28_321
*1063 FILLER_28_333
*1064 FILLER_28_41
*1065 FILLER_28_53
*1066 FILLER_28_65
*1067 FILLER_28_77
*1068 FILLER_28_83
*1069 FILLER_29_109
*1070 FILLER_29_121
*1071 FILLER_29_149
*1072 FILLER_29_15
*1073 FILLER_29_161
*1074 FILLER_29_167
*1075 FILLER_29_169
*1076 FILLER_29_181
*1077 FILLER_29_193
*1078 FILLER_29_201
*1079 FILLER_29_211
*1080 FILLER_29_222
*1081 FILLER_29_231
*1082 FILLER_29_243
*1083 FILLER_29_251
*1084 FILLER_29_257
*1085 FILLER_29_269
*1086 FILLER_29_27
*1087 FILLER_29_274
*1088 FILLER_29_281
*1089 FILLER_29_3
*1090 FILLER_29_304
*1091 FILLER_29_310
*1092 FILLER_29_317
*1093 FILLER_29_329
*1094 FILLER_29_39
*1095 FILLER_29_51
*1096 FILLER_29_55
*1097 FILLER_29_57
*1098 FILLER_29_69
*1099 FILLER_29_81
*1100 FILLER_2_109
*1101 FILLER_2_121
*1102 FILLER_2_133
*1103 FILLER_2_139
*1104 FILLER_2_141
*1105 FILLER_2_15
*1106 FILLER_2_153
*1107 FILLER_2_165
*1108 FILLER_2_177
*1109 FILLER_2_189
*1110 FILLER_2_195
*1111 FILLER_2_197
*1112 FILLER_2_209
*1113 FILLER_2_221
*1114 FILLER_2_233
*1115 FILLER_2_245
*1116 FILLER_2_251
*1117 FILLER_2_253
*1118 FILLER_2_265
*1119 FILLER_2_27
*1120 FILLER_2_277
*1121 FILLER_2_289
*1122 FILLER_2_29
*1123 FILLER_2_3
*1124 FILLER_2_301
*1125 FILLER_2_307
*1126 FILLER_2_309
*1127 FILLER_2_321
*1128 FILLER_2_333
*1129 FILLER_2_41
*1130 FILLER_2_53
*1131 FILLER_2_65
*1132 FILLER_2_77
*1133 FILLER_2_83
*1134 FILLER_2_85
*1135 FILLER_2_97
*1136 FILLER_30_108
*1137 FILLER_30_120
*1138 FILLER_30_124
*1139 FILLER_30_136
*1140 FILLER_30_141
*1141 FILLER_30_15
*1142 FILLER_30_153
*1143 FILLER_30_182
*1144 FILLER_30_194
*1145 FILLER_30_202
*1146 FILLER_30_214
*1147 FILLER_30_226
*1148 FILLER_30_230
*1149 FILLER_30_238
*1150 FILLER_30_250
*1151 FILLER_30_257
*1152 FILLER_30_27
*1153 FILLER_30_277
*1154 FILLER_30_289
*1155 FILLER_30_29
*1156 FILLER_30_3
*1157 FILLER_30_306
*1158 FILLER_30_333
*1159 FILLER_30_41
*1160 FILLER_30_53
*1161 FILLER_30_65
*1162 FILLER_30_77
*1163 FILLER_30_83
*1164 FILLER_30_85
*1165 FILLER_31_102
*1166 FILLER_31_113
*1167 FILLER_31_137
*1168 FILLER_31_15
*1169 FILLER_31_166
*1170 FILLER_31_188
*1171 FILLER_31_215
*1172 FILLER_31_219
*1173 FILLER_31_223
*1174 FILLER_31_238
*1175 FILLER_31_250
*1176 FILLER_31_27
*1177 FILLER_31_284
*1178 FILLER_31_3
*1179 FILLER_31_316
*1180 FILLER_31_328
*1181 FILLER_31_334
*1182 FILLER_31_39
*1183 FILLER_31_51
*1184 FILLER_31_55
*1185 FILLER_31_57
*1186 FILLER_31_69
*1187 FILLER_31_81
*1188 FILLER_31_93
*1189 FILLER_32_125
*1190 FILLER_32_144
*1191 FILLER_32_15
*1192 FILLER_32_188
*1193 FILLER_32_249
*1194 FILLER_32_259
*1195 FILLER_32_27
*1196 FILLER_32_286
*1197 FILLER_32_29
*1198 FILLER_32_298
*1199 FILLER_32_3
*1200 FILLER_32_306
*1201 FILLER_32_329
*1202 FILLER_32_41
*1203 FILLER_32_53
*1204 FILLER_32_65
*1205 FILLER_32_77
*1206 FILLER_32_83
*1207 FILLER_32_85
*1208 FILLER_33_105
*1209 FILLER_33_111
*1210 FILLER_33_124
*1211 FILLER_33_133
*1212 FILLER_33_143
*1213 FILLER_33_15
*1214 FILLER_33_155
*1215 FILLER_33_179
*1216 FILLER_33_214
*1217 FILLER_33_222
*1218 FILLER_33_225
*1219 FILLER_33_240
*1220 FILLER_33_247
*1221 FILLER_33_259
*1222 FILLER_33_268
*1223 FILLER_33_27
*1224 FILLER_33_281
*1225 FILLER_33_293
*1226 FILLER_33_3
*1227 FILLER_33_301
*1228 FILLER_33_307
*1229 FILLER_33_319
*1230 FILLER_33_331
*1231 FILLER_33_39
*1232 FILLER_33_51
*1233 FILLER_33_55
*1234 FILLER_33_57
*1235 FILLER_33_69
*1236 FILLER_33_81
*1237 FILLER_33_93
*1238 FILLER_34_109
*1239 FILLER_34_130
*1240 FILLER_34_136
*1241 FILLER_34_141
*1242 FILLER_34_15
*1243 FILLER_34_153
*1244 FILLER_34_175
*1245 FILLER_34_187
*1246 FILLER_34_195
*1247 FILLER_34_197
*1248 FILLER_34_209
*1249 FILLER_34_221
*1250 FILLER_34_230
*1251 FILLER_34_239
*1252 FILLER_34_251
*1253 FILLER_34_253
*1254 FILLER_34_259
*1255 FILLER_34_27
*1256 FILLER_34_289
*1257 FILLER_34_29
*1258 FILLER_34_3
*1259 FILLER_34_301
*1260 FILLER_34_307
*1261 FILLER_34_333
*1262 FILLER_34_41
*1263 FILLER_34_53
*1264 FILLER_34_65
*1265 FILLER_34_77
*1266 FILLER_34_83
*1267 FILLER_34_85
*1268 FILLER_34_97
*1269 FILLER_35_105
*1270 FILLER_35_111
*1271 FILLER_35_134
*1272 FILLER_35_146
*1273 FILLER_35_15
*1274 FILLER_35_153
*1275 FILLER_35_167
*1276 FILLER_35_169
*1277 FILLER_35_181
*1278 FILLER_35_193
*1279 FILLER_35_216
*1280 FILLER_35_225
*1281 FILLER_35_230
*1282 FILLER_35_246
*1283 FILLER_35_27
*1284 FILLER_35_278
*1285 FILLER_35_287
*1286 FILLER_35_299
*1287 FILLER_35_3
*1288 FILLER_35_316
*1289 FILLER_35_326
*1290 FILLER_35_39
*1291 FILLER_35_51
*1292 FILLER_35_55
*1293 FILLER_35_57
*1294 FILLER_35_69
*1295 FILLER_35_81
*1296 FILLER_35_93
*1297 FILLER_36_109
*1298 FILLER_36_141
*1299 FILLER_36_15
*1300 FILLER_36_177
*1301 FILLER_36_185
*1302 FILLER_36_192
*1303 FILLER_36_219
*1304 FILLER_36_232
*1305 FILLER_36_240
*1306 FILLER_36_27
*1307 FILLER_36_29
*1308 FILLER_36_294
*1309 FILLER_36_298
*1310 FILLER_36_3
*1311 FILLER_36_332
*1312 FILLER_36_41
*1313 FILLER_36_53
*1314 FILLER_36_65
*1315 FILLER_36_77
*1316 FILLER_36_83
*1317 FILLER_36_85
*1318 FILLER_36_97
*1319 FILLER_37_105
*1320 FILLER_37_111
*1321 FILLER_37_113
*1322 FILLER_37_128
*1323 FILLER_37_135
*1324 FILLER_37_15
*1325 FILLER_37_151
*1326 FILLER_37_163
*1327 FILLER_37_167
*1328 FILLER_37_177
*1329 FILLER_37_185
*1330 FILLER_37_199
*1331 FILLER_37_222
*1332 FILLER_37_225
*1333 FILLER_37_231
*1334 FILLER_37_235
*1335 FILLER_37_251
*1336 FILLER_37_259
*1337 FILLER_37_27
*1338 FILLER_37_277
*1339 FILLER_37_281
*1340 FILLER_37_287
*1341 FILLER_37_3
*1342 FILLER_37_39
*1343 FILLER_37_51
*1344 FILLER_37_55
*1345 FILLER_37_57
*1346 FILLER_37_69
*1347 FILLER_37_81
*1348 FILLER_37_93
*1349 FILLER_38_100
*1350 FILLER_38_106
*1351 FILLER_38_113
*1352 FILLER_38_118
*1353 FILLER_38_124
*1354 FILLER_38_130
*1355 FILLER_38_136
*1356 FILLER_38_144
*1357 FILLER_38_148
*1358 FILLER_38_15
*1359 FILLER_38_154
*1360 FILLER_38_166
*1361 FILLER_38_169
*1362 FILLER_38_181
*1363 FILLER_38_193
*1364 FILLER_38_197
*1365 FILLER_38_222
*1366 FILLER_38_228
*1367 FILLER_38_232
*1368 FILLER_38_238
*1369 FILLER_38_244
*1370 FILLER_38_251
*1371 FILLER_38_268
*1372 FILLER_38_27
*1373 FILLER_38_275
*1374 FILLER_38_281
*1375 FILLER_38_29
*1376 FILLER_38_296
*1377 FILLER_38_3
*1378 FILLER_38_307
*1379 FILLER_38_309
*1380 FILLER_38_320
*1381 FILLER_38_333
*1382 FILLER_38_41
*1383 FILLER_38_53
*1384 FILLER_38_57
*1385 FILLER_38_64
*1386 FILLER_38_70
*1387 FILLER_38_76
*1388 FILLER_38_82
*1389 FILLER_38_88
*1390 FILLER_38_94
*1391 FILLER_3_105
*1392 FILLER_3_111
*1393 FILLER_3_113
*1394 FILLER_3_125
*1395 FILLER_3_137
*1396 FILLER_3_149
*1397 FILLER_3_15
*1398 FILLER_3_161
*1399 FILLER_3_167
*1400 FILLER_3_169
*1401 FILLER_3_181
*1402 FILLER_3_193
*1403 FILLER_3_205
*1404 FILLER_3_217
*1405 FILLER_3_223
*1406 FILLER_3_225
*1407 FILLER_3_237
*1408 FILLER_3_249
*1409 FILLER_3_261
*1410 FILLER_3_27
*1411 FILLER_3_273
*1412 FILLER_3_279
*1413 FILLER_3_281
*1414 FILLER_3_293
*1415 FILLER_3_3
*1416 FILLER_3_305
*1417 FILLER_3_317
*1418 FILLER_3_329
*1419 FILLER_3_39
*1420 FILLER_3_51
*1421 FILLER_3_55
*1422 FILLER_3_57
*1423 FILLER_3_69
*1424 FILLER_3_81
*1425 FILLER_3_93
*1426 FILLER_4_109
*1427 FILLER_4_121
*1428 FILLER_4_133
*1429 FILLER_4_139
*1430 FILLER_4_141
*1431 FILLER_4_15
*1432 FILLER_4_153
*1433 FILLER_4_165
*1434 FILLER_4_177
*1435 FILLER_4_189
*1436 FILLER_4_195
*1437 FILLER_4_197
*1438 FILLER_4_209
*1439 FILLER_4_221
*1440 FILLER_4_233
*1441 FILLER_4_245
*1442 FILLER_4_251
*1443 FILLER_4_253
*1444 FILLER_4_265
*1445 FILLER_4_27
*1446 FILLER_4_277
*1447 FILLER_4_289
*1448 FILLER_4_29
*1449 FILLER_4_3
*1450 FILLER_4_301
*1451 FILLER_4_307
*1452 FILLER_4_309
*1453 FILLER_4_321
*1454 FILLER_4_333
*1455 FILLER_4_41
*1456 FILLER_4_53
*1457 FILLER_4_65
*1458 FILLER_4_77
*1459 FILLER_4_83
*1460 FILLER_4_85
*1461 FILLER_4_97
*1462 FILLER_5_105
*1463 FILLER_5_111
*1464 FILLER_5_113
*1465 FILLER_5_125
*1466 FILLER_5_137
*1467 FILLER_5_149
*1468 FILLER_5_15
*1469 FILLER_5_161
*1470 FILLER_5_167
*1471 FILLER_5_169
*1472 FILLER_5_181
*1473 FILLER_5_193
*1474 FILLER_5_205
*1475 FILLER_5_217
*1476 FILLER_5_223
*1477 FILLER_5_225
*1478 FILLER_5_237
*1479 FILLER_5_249
*1480 FILLER_5_261
*1481 FILLER_5_27
*1482 FILLER_5_273
*1483 FILLER_5_279
*1484 FILLER_5_281
*1485 FILLER_5_293
*1486 FILLER_5_3
*1487 FILLER_5_305
*1488 FILLER_5_317
*1489 FILLER_5_329
*1490 FILLER_5_39
*1491 FILLER_5_51
*1492 FILLER_5_55
*1493 FILLER_5_57
*1494 FILLER_5_69
*1495 FILLER_5_81
*1496 FILLER_5_93
*1497 FILLER_6_109
*1498 FILLER_6_121
*1499 FILLER_6_133
*1500 FILLER_6_139
*1501 FILLER_6_141
*1502 FILLER_6_15
*1503 FILLER_6_153
*1504 FILLER_6_165
*1505 FILLER_6_177
*1506 FILLER_6_189
*1507 FILLER_6_195
*1508 FILLER_6_197
*1509 FILLER_6_209
*1510 FILLER_6_221
*1511 FILLER_6_233
*1512 FILLER_6_245
*1513 FILLER_6_251
*1514 FILLER_6_253
*1515 FILLER_6_265
*1516 FILLER_6_27
*1517 FILLER_6_277
*1518 FILLER_6_289
*1519 FILLER_6_29
*1520 FILLER_6_3
*1521 FILLER_6_301
*1522 FILLER_6_307
*1523 FILLER_6_309
*1524 FILLER_6_321
*1525 FILLER_6_333
*1526 FILLER_6_41
*1527 FILLER_6_53
*1528 FILLER_6_65
*1529 FILLER_6_77
*1530 FILLER_6_83
*1531 FILLER_6_85
*1532 FILLER_6_97
*1533 FILLER_7_105
*1534 FILLER_7_111
*1535 FILLER_7_113
*1536 FILLER_7_125
*1537 FILLER_7_137
*1538 FILLER_7_149
*1539 FILLER_7_15
*1540 FILLER_7_161
*1541 FILLER_7_167
*1542 FILLER_7_169
*1543 FILLER_7_181
*1544 FILLER_7_193
*1545 FILLER_7_205
*1546 FILLER_7_217
*1547 FILLER_7_223
*1548 FILLER_7_225
*1549 FILLER_7_237
*1550 FILLER_7_249
*1551 FILLER_7_261
*1552 FILLER_7_27
*1553 FILLER_7_273
*1554 FILLER_7_279
*1555 FILLER_7_281
*1556 FILLER_7_293
*1557 FILLER_7_3
*1558 FILLER_7_305
*1559 FILLER_7_317
*1560 FILLER_7_329
*1561 FILLER_7_39
*1562 FILLER_7_51
*1563 FILLER_7_55
*1564 FILLER_7_57
*1565 FILLER_7_69
*1566 FILLER_7_81
*1567 FILLER_7_93
*1568 FILLER_8_109
*1569 FILLER_8_121
*1570 FILLER_8_133
*1571 FILLER_8_139
*1572 FILLER_8_141
*1573 FILLER_8_15
*1574 FILLER_8_153
*1575 FILLER_8_165
*1576 FILLER_8_177
*1577 FILLER_8_189
*1578 FILLER_8_195
*1579 FILLER_8_197
*1580 FILLER_8_209
*1581 FILLER_8_221
*1582 FILLER_8_233
*1583 FILLER_8_245
*1584 FILLER_8_251
*1585 FILLER_8_253
*1586 FILLER_8_265
*1587 FILLER_8_27
*1588 FILLER_8_277
*1589 FILLER_8_289
*1590 FILLER_8_29
*1591 FILLER_8_3
*1592 FILLER_8_301
*1593 FILLER_8_307
*1594 FILLER_8_309
*1595 FILLER_8_321
*1596 FILLER_8_333
*1597 FILLER_8_41
*1598 FILLER_8_53
*1599 FILLER_8_65
*1600 FILLER_8_77
*1601 FILLER_8_83
*1602 FILLER_8_85
*1603 FILLER_8_97
*1604 FILLER_9_105
*1605 FILLER_9_111
*1606 FILLER_9_113
*1607 FILLER_9_125
*1608 FILLER_9_137
*1609 FILLER_9_149
*1610 FILLER_9_15
*1611 FILLER_9_161
*1612 FILLER_9_167
*1613 FILLER_9_169
*1614 FILLER_9_181
*1615 FILLER_9_193
*1616 FILLER_9_205
*1617 FILLER_9_217
*1618 FILLER_9_223
*1619 FILLER_9_225
*1620 FILLER_9_237
*1621 FILLER_9_249
*1622 FILLER_9_261
*1623 FILLER_9_27
*1624 FILLER_9_273
*1625 FILLER_9_279
*1626 FILLER_9_281
*1627 FILLER_9_293
*1628 FILLER_9_3
*1629 FILLER_9_305
*1630 FILLER_9_317
*1631 FILLER_9_329
*1632 FILLER_9_39
*1633 FILLER_9_51
*1634 FILLER_9_55
*1635 FILLER_9_57
*1636 FILLER_9_69
*1637 FILLER_9_81
*1638 FILLER_9_93
*1639 PHY_EDGE_ROW_0_Left_39
*1640 PHY_EDGE_ROW_0_Right_0
*1641 PHY_EDGE_ROW_10_Left_49
*1642 PHY_EDGE_ROW_10_Right_10
*1643 PHY_EDGE_ROW_11_Left_50
*1644 PHY_EDGE_ROW_11_Right_11
*1645 PHY_EDGE_ROW_12_Left_51
*1646 PHY_EDGE_ROW_12_Right_12
*1647 PHY_EDGE_ROW_13_Left_52
*1648 PHY_EDGE_ROW_13_Right_13
*1649 PHY_EDGE_ROW_14_Left_53
*1650 PHY_EDGE_ROW_14_Right_14
*1651 PHY_EDGE_ROW_15_Left_54
*1652 PHY_EDGE_ROW_15_Right_15
*1653 PHY_EDGE_ROW_16_Left_55
*1654 PHY_EDGE_ROW_16_Right_16
*1655 PHY_EDGE_ROW_17_Left_56
*1656 PHY_EDGE_ROW_17_Right_17
*1657 PHY_EDGE_ROW_18_Left_57
*1658 PHY_EDGE_ROW_18_Right_18
*1659 PHY_EDGE_ROW_19_Left_58
*1660 PHY_EDGE_ROW_19_Right_19
*1661 PHY_EDGE_ROW_1_Left_40
*1662 PHY_EDGE_ROW_1_Right_1
*1663 PHY_EDGE_ROW_20_Left_59
*1664 PHY_EDGE_ROW_20_Right_20
*1665 PHY_EDGE_ROW_21_Left_60
*1666 PHY_EDGE_ROW_21_Right_21
*1667 PHY_EDGE_ROW_22_Left_61
*1668 PHY_EDGE_ROW_22_Right_22
*1669 PHY_EDGE_ROW_23_Left_62
*1670 PHY_EDGE_ROW_23_Right_23
*1671 PHY_EDGE_ROW_24_Left_63
*1672 PHY_EDGE_ROW_24_Right_24
*1673 PHY_EDGE_ROW_25_Left_64
*1674 PHY_EDGE_ROW_25_Right_25
*1675 PHY_EDGE_ROW_26_Left_65
*1676 PHY_EDGE_ROW_26_Right_26
*1677 PHY_EDGE_ROW_27_Left_66
*1678 PHY_EDGE_ROW_27_Right_27
*1679 PHY_EDGE_ROW_28_Left_67
*1680 PHY_EDGE_ROW_28_Right_28
*1681 PHY_EDGE_ROW_29_Left_68
*1682 PHY_EDGE_ROW_29_Right_29
*1683 PHY_EDGE_ROW_2_Left_41
*1684 PHY_EDGE_ROW_2_Right_2
*1685 PHY_EDGE_ROW_30_Left_69
*1686 PHY_EDGE_ROW_30_Right_30
*1687 PHY_EDGE_ROW_31_Left_70
*1688 PHY_EDGE_ROW_31_Right_31
*1689 PHY_EDGE_ROW_32_Left_71
*1690 PHY_EDGE_ROW_32_Right_32
*1691 PHY_EDGE_ROW_33_Left_72
*1692 PHY_EDGE_ROW_33_Right_33
*1693 PHY_EDGE_ROW_34_Left_73
*1694 PHY_EDGE_ROW_34_Right_34